/*--------------------------------*- C++ -*----------------------------------*\
  =========                 |
  \\      /  F ield         | OpenFOAM: The Open Source CFD Toolbox
   \\    /   O peration     | Website:  https://openfoam.org
    \\  /    A nd           | Version:  6
     \\/     M anipulation  |
\*---------------------------------------------------------------------------*/
FoamFile
{
    version     2.0;
    format      binary;
    class       polyBoundaryMesh;
    location    "constant/polyMesh";
    object      boundary;
}
// * * * * * * * * * * * * * * * * * * * * * * * * * * * * * * * * * * * * * //

6
(
    inlet
    {
        type            patch;
        nFaces          0;
        startFace       216403;
    }
    outlet
    {
        type            patch;
        nFaces          450;
        startFace       216403;
    }
    side
    {
        type            patch;
        nFaces          2184;
        startFace       216853;
    }
    monkey
    {
        type            wall;
        inGroups        1(wall);
        nFaces          5308;
        startFace       219037;
    }
    procBoundary3to1
    {
        type            processor;
        inGroups        1(processor);
        nFaces          1990;
        startFace       224345;
        matchTolerance  0.0001;
        transform       unknown;
        myProcNo        3;
        neighbProcNo    1;
    }
    procBoundary3to2
    {
        type            processor;
        inGroups        1(processor);
        nFaces          2203;
        startFace       226335;
        matchTolerance  0.0001;
        transform       unknown;
        myProcNo        3;
        neighbProcNo    2;
    }
)

// ************************************************************************* //
