/*--------------------------------*- C++ -*----------------------------------*\
  =========                 |
  \\      /  F ield         | OpenFOAM: The Open Source CFD Toolbox
   \\    /   O peration     | Website:  https://openfoam.org
    \\  /    A nd           | Version:  6
     \\/     M anipulation  |
\*---------------------------------------------------------------------------*/
FoamFile
{
    version     2.0;
    format      binary;
    class       polyBoundaryMesh;
    location    "constant/polyMesh";
    object      boundary;
}
// * * * * * * * * * * * * * * * * * * * * * * * * * * * * * * * * * * * * * //

6
(
    inlet
    {
        type            patch;
        nFaces          0;
        startFace       216154;
    }
    outlet
    {
        type            patch;
        nFaces          450;
        startFace       216154;
    }
    side
    {
        type            patch;
        nFaces          2163;
        startFace       216604;
    }
    monkey
    {
        type            wall;
        inGroups        1(wall);
        nFaces          5305;
        startFace       218767;
    }
    procBoundary2to0
    {
        type            processor;
        inGroups        1(processor);
        nFaces          1965;
        startFace       224072;
        matchTolerance  0.0001;
        transform       unknown;
        myProcNo        2;
        neighbProcNo    0;
    }
    procBoundary2to3
    {
        type            processor;
        inGroups        1(processor);
        nFaces          2203;
        startFace       226037;
        matchTolerance  0.0001;
        transform       unknown;
        myProcNo        2;
        neighbProcNo    3;
    }
)

// ************************************************************************* //
