/*--------------------------------*- C++ -*----------------------------------*\
  =========                 |
  \\      /  F ield         | OpenFOAM: The Open Source CFD Toolbox
   \\    /   O peration     | Website:  https://openfoam.org
    \\  /    A nd           | Version:  6
     \\/     M anipulation  |
\*---------------------------------------------------------------------------*/
FoamFile
{
    version     2.0;
    format      binary;
    class       polyBoundaryMesh;
    location    "constant/polyMesh";
    object      boundary;
}
// * * * * * * * * * * * * * * * * * * * * * * * * * * * * * * * * * * * * * //

6
(
    inlet
    {
        type            patch;
        nFaces          450;
        startFace       216039;
    }
    outlet
    {
        type            patch;
        nFaces          0;
        startFace       216489;
    }
    side
    {
        type            patch;
        nFaces          1437;
        startFace       216489;
    }
    monkey
    {
        type            wall;
        inGroups        1(wall);
        nFaces          5707;
        startFace       217926;
    }
    procBoundary0to1
    {
        type            processor;
        inGroups        1(processor);
        nFaces          2944;
        startFace       223633;
        matchTolerance  0.0001;
        transform       unknown;
        myProcNo        0;
        neighbProcNo    1;
    }
    procBoundary0to2
    {
        type            processor;
        inGroups        1(processor);
        nFaces          1965;
        startFace       226577;
        matchTolerance  0.0001;
        transform       unknown;
        myProcNo        0;
        neighbProcNo    2;
    }
)

// ************************************************************************* //
