/*--------------------------------*- C++ -*----------------------------------*\
  =========                 |
  \\      /  F ield         | OpenFOAM: The Open Source CFD Toolbox
   \\    /   O peration     | Website:  https://openfoam.org
    \\  /    A nd           | Version:  6
     \\/     M anipulation  |
\*---------------------------------------------------------------------------*/
FoamFile
{
    version     2.0;
    format      binary;
    class       polyBoundaryMesh;
    location    "constant/polyMesh";
    object      boundary;
}
// * * * * * * * * * * * * * * * * * * * * * * * * * * * * * * * * * * * * * //

6
(
    inlet
    {
        type            patch;
        nFaces          450;
        startFace       215782;
    }
    outlet
    {
        type            patch;
        nFaces          0;
        startFace       216232;
    }
    side
    {
        type            patch;
        nFaces          1416;
        startFace       216232;
    }
    monkey
    {
        type            wall;
        inGroups        1(wall);
        nFaces          5688;
        startFace       217648;
    }
    procBoundary1to0
    {
        type            processor;
        inGroups        1(processor);
        nFaces          2944;
        startFace       223336;
        matchTolerance  0.0001;
        transform       unknown;
        myProcNo        1;
        neighbProcNo    0;
    }
    procBoundary1to3
    {
        type            processor;
        inGroups        1(processor);
        nFaces          1990;
        startFace       226280;
        matchTolerance  0.0001;
        transform       unknown;
        myProcNo        1;
        neighbProcNo    3;
    }
)

// ************************************************************************* //
